******************  
.lib pre_layout
.option gmindc=1e-14 scale=0.9
.param prelayout=1
.param flag_cc=1
.endl pre_layout

******************
* mos corner model
******************
.lib tt
.option gmindc=1e-14 scale=0.9
.param
+sigma_mis_toxe=agauss(0,3,3)
+sigma_mis_xl=agauss(0,3,3)
+sigma_mis_xw=agauss(0,3,3)
+sigma_mis_vth0=agauss(0,3,3)
+sigma_mis_u0=agauss(0,3,3)
+sigma_mis_voff=agauss(0,3,3)
+sigma_mis_vsat=agauss(0,3,3)

**n11**
*1.1v core lvt nmos (tt corner)
.subckt nlvt11ll_ckt_11 d g s b w=1e-6 l=1e-6 sa='sar' sb='sbr' sd='sdr' as='asr' ad='adr' ps='psr' pd='pdr' nrd='nrdr' nrs='nrsr' sca=0 scb=0 scc=0 nf=1 mr=1 globalmod=1 mismod=1 dps=0.14u dpcs=0.04u dsts=1u lpemod=1 prelayout=0 dcn='dcnr'
.param
+dmcgr = 3.5e-8
+dmcir = 3.5e-8
+scale_mos = 0.9
+xlr = 5.8e-9
+xwr = 1.7e-8
+sar = '0.261e-6/scale_mos'
+sbr = '0.261e-6/scale_mos'
+sdr = '2*dmcgr/scale_mos'
+adr = '(nf*dmcgr+dmcir)/scale_mos*(w/nf+xwr/scale_mos)'
+asr = '(nf*dmcgr+dmcir)/scale_mos*(w/nf+xwr/scale_mos)'
+pdr = '2*(nf*dmcgr+dmcir)/scale_mos+(nf+1)*(w/nf+xwr/scale_mos)'
+psr = '2*(nf*dmcgr+dmcir)/scale_mos+(nf+1)*(w/nf+xwr/scale_mos)'
+nrdr = 'dmcgr/scale_mos/nf/(w/nf+xwr/scale_mos)'
+nrsr = 'dmcgr/scale_mos/nf/(w/nf+xwr/scale_mos)'
+dcnr = 'max(1,int(((w/nf-0.009*1e-6*2/scale_mos)-0.054*1e-6/scale_mos)/(0.126*1e-6/scale_mos)+1))'
******mismatch******
+lef = 'l*scale_mos+xlr'
+wef = 'w*scale_mos/nf+xwr'
+geo_fac = '1/sqrt(wef*lef*nf*mr)'
+atoxe_nlvt11ll = 7.22841e-038
+axl_nlvt11ll   = 7.22841e-038
+axw_nlvt11ll   = 7.22841e-038
+avth0_nlvt11ll = 2.07999e-009
+au0_nlvt11ll   = 1.12999e-012
+avoff_nlvt11ll = 2.6e-009
+dtoxe_nlvt11ll_mis    = '0+atoxe_nlvt11ll*geo_fac*sigma_mis_toxe*mismod'
+dxl_nlvt11ll_mis      = '0+axl_nlvt11ll*geo_fac*sigma_mis_xl*mismod'
+dxw_nlvt11ll_mis      = '0+axw_nlvt11ll*geo_fac*sigma_mis_xw*mismod'
+dvth0_nlvt11ll_mis    = '0+avth0_nlvt11ll*geo_fac*sigma_mis_vth0*mismod'
+du0_nlvt11ll_mis      = '0+au0_nlvt11ll*geo_fac*sigma_mis_u0*mismod'
+dvoff_nlvt11ll_mis    = '0+avoff_nlvt11ll*geo_fac*sigma_mis_voff*mismod'
******corner******
+dtoxe_nlvt11ll        = '0+dtoxe_nlvt11ll_mis'
+dxl_nlvt11ll          = '0+dxl_nlvt11ll_mis'
+dxw_nlvt11ll          = '0+dxw_nlvt11ll_mis'
+dvth_nlvt11ll         = '0+dvth0_nlvt11ll_mis'
+du0_nlvt11ll          = '0+du0_nlvt11ll_mis'
+dvoff_nlvt11ll        = '0+dvoff_nlvt11ll_mis'
+dcgdo_nlvt11ll        = '0+prelayout*6.64e-18*dcn/(w*scale_mos)'
+dcgso_nlvt11ll        = '0+prelayout*6.64e-18*dcn/(w*scale_mos)'
+dcjs_nlvt11ll          = 0
+dcjsws_nlvt11ll        = 0
+dcjswgs_nlvt11ll       = 0
+dcf_nlvt11ll           = 0
+dcgdl_nlvt11ll         = 0
+dcgsl_nlvt11ll         = 0
+dlvth0_nlvt11ll        = 0
+dwvth0_nlvt11ll        = 0
+dpvth0_nlvt11ll        = 0
+dlu0_nlvt11ll          = 0
+dpu0_nlvt11ll          = 0
+dlvsat_nlvt11ll        = 0
+dags_nlvt11ll          = 0
+dpvsat_nlvt11ll        = 0
+dlvoff_nlvt11ll        = 0
+dleta0_nlvt11ll        = 0
m1 d g s b nlvt11ll_ckt_11 w=w l=l sa=sa sb=sb sd=sd as=as ad=ad ps=ps pd=pd nrd=nrd nrs=nrs sca=sca scb=scb scc=scc nf=nf m=mr
.inc 'l0040ll_v1p4_1r_1.mdl'
.inc 'l0040ll_lpe_v1p4_1r_nlvt11ll.mdl'
.ends nlvt11ll_ckt_11

**n12**
.subckt nlvt11ll_ckt_12 d g s b w=1e-6 l=1e-6 sa='sar' sb='sbr' sd='sdr' as='asr' ad='adr' ps='psr' pd='pdr' nrd='nrdr' nrs='nrsr' sca=0 scb=0 scc=0 nf=1 mr=1 globalmod=1 mismod=1 dps=0.14u dpcs=0.04u dsts=1u lpemod=1 prelayout=0 dcn='dcnr'
.param
+dmcgr = 3.5e-8
+dmcir = 3.5e-8
+scale_mos = 0.9
+xlr = 5.8e-9
+xwr = 1.7e-8
+sar = '0.261e-6/scale_mos'
+sbr = '0.261e-6/scale_mos'
+sdr = '2*dmcgr/scale_mos'
+adr = '(nf*dmcgr+dmcir)/scale_mos*(w/nf+xwr/scale_mos)'
+asr = '(nf*dmcgr+dmcir)/scale_mos*(w/nf+xwr/scale_mos)'
+pdr = '2*(nf*dmcgr+dmcir)/scale_mos+(nf+1)*(w/nf+xwr/scale_mos)'
+psr = '2*(nf*dmcgr+dmcir)/scale_mos+(nf+1)*(w/nf+xwr/scale_mos)'
+nrdr = 'dmcgr/scale_mos/nf/(w/nf+xwr/scale_mos)'
+nrsr = 'dmcgr/scale_mos/nf/(w/nf+xwr/scale_mos)'
+dcnr = 'max(1,int(((w/nf-0.009*1e-6*2/scale_mos)-0.054*1e-6/scale_mos)/(0.126*1e-6/scale_mos)+1))'
******mismatch******
+lef = 'l*scale_mos+xlr'
+wef = 'w*scale_mos/nf+xwr'
+geo_fac = '1/sqrt(wef*lef*nf*mr)'
+atoxe_nlvt11ll = 7.22841e-038
+axl_nlvt11ll   = 7.22841e-038
+axw_nlvt11ll   = 7.22841e-038
+avth0_nlvt11ll = 2.07999e-009
+au0_nlvt11ll   = 1.12999e-012
+avoff_nlvt11ll = 2.6e-009
+dtoxe_nlvt11ll_mis    = '0+atoxe_nlvt11ll*geo_fac*sigma_mis_toxe*mismod'
+dxl_nlvt11ll_mis      = '0+axl_nlvt11ll*geo_fac*sigma_mis_xl*mismod'
+dxw_nlvt11ll_mis      = '0+axw_nlvt11ll*geo_fac*sigma_mis_xw*mismod'
+dvth0_nlvt11ll_mis    = '0+avth0_nlvt11ll*geo_fac*sigma_mis_vth0*mismod'
+du0_nlvt11ll_mis      = '0+au0_nlvt11ll*geo_fac*sigma_mis_u0*mismod'
+dvoff_nlvt11ll_mis    = '0+avoff_nlvt11ll*geo_fac*sigma_mis_voff*mismod'
******corner******
+dtoxe_nlvt11ll        = '0+dtoxe_nlvt11ll_mis'
+dxl_nlvt11ll          = '0+dxl_nlvt11ll_mis'
+dxw_nlvt11ll          = '0+dxw_nlvt11ll_mis'
+dvth_nlvt11ll         = '0+dvth0_nlvt11ll_mis'
+du0_nlvt11ll          = '0+du0_nlvt11ll_mis'
+dvoff_nlvt11ll        = '0+dvoff_nlvt11ll_mis'
+dcgdo_nlvt11ll        = '0+prelayout*6.64e-18*dcn/(w*scale_mos)'
+dcgso_nlvt11ll        = '0+prelayout*6.64e-18*dcn/(w*scale_mos)'
+dcjs_nlvt11ll          = 0
+dcjsws_nlvt11ll        = 0
+dcjswgs_nlvt11ll       = 0
+dcf_nlvt11ll           = 0
+dcgdl_nlvt11ll         = 0
+dcgsl_nlvt11ll         = 0
+dlvth0_nlvt11ll        = 0
+dwvth0_nlvt11ll        = 0
+dpvth0_nlvt11ll        = 0
+dlu0_nlvt11ll          = 0
+dpu0_nlvt11ll          = 0
+dlvsat_nlvt11ll        = 0
+dags_nlvt11ll          = 0
+dpvsat_nlvt11ll        = 0
+dlvoff_nlvt11ll        = 0
+dleta0_nlvt11ll        = 0
m1 d g s b nlvt11ll_ckt_12 w=w l=l sa=sa sb=sb sd=sd as=as ad=ad ps=ps pd=pd nrd=nrd nrs=nrs sca=sca scb=scb scc=scc nf=nf m=mr
.inc 'l0040ll_v1p4_1r_1.mdl'
.inc 'l0040ll_lpe_v1p4_1r_nlvt11ll.mdl'
.ends nlvt11ll_ckt_12

**n13**
.subckt nlvt11ll_ckt_13 d g s b w=1e-6 l=1e-6 sa='sar' sb='sbr' sd='sdr' as='asr' ad='adr' ps='psr' pd='pdr' nrd='nrdr' nrs='nrsr' sca=0 scb=0 scc=0 nf=1 mr=1 globalmod=1 mismod=1 dps=0.14u dpcs=0.04u dsts=1u lpemod=1 prelayout=0 dcn='dcnr'
.param
+dmcgr = 3.5e-8
+dmcir = 3.5e-8
+scale_mos = 0.9
+xlr = 5.8e-9
+xwr = 1.7e-8
+sar = '0.261e-6/scale_mos'
+sbr = '0.261e-6/scale_mos'
+sdr = '2*dmcgr/scale_mos'
+adr = '(nf*dmcgr+dmcir)/scale_mos*(w/nf+xwr/scale_mos)'
+asr = '(nf*dmcgr+dmcir)/scale_mos*(w/nf+xwr/scale_mos)'
+pdr = '2*(nf*dmcgr+dmcir)/scale_mos+(nf+1)*(w/nf+xwr/scale_mos)'
+psr = '2*(nf*dmcgr+dmcir)/scale_mos+(nf+1)*(w/nf+xwr/scale_mos)'
+nrdr = 'dmcgr/scale_mos/nf/(w/nf+xwr/scale_mos)'
+nrsr = 'dmcgr/scale_mos/nf/(w/nf+xwr/scale_mos)'
+dcnr = 'max(1,int(((w/nf-0.009*1e-6*2/scale_mos)-0.054*1e-6/scale_mos)/(0.126*1e-6/scale_mos)+1))'
******mismatch******
+lef = 'l*scale_mos+xlr'
+wef = 'w*scale_mos/nf+xwr'
+geo_fac = '1/sqrt(wef*lef*nf*mr)'
+atoxe_nlvt11ll = 7.22841e-038
+axl_nlvt11ll   = 7.22841e-038
+axw_nlvt11ll   = 7.22841e-038
+avth0_nlvt11ll = 2.07999e-009
+au0_nlvt11ll   = 1.12999e-012
+avoff_nlvt11ll = 2.6e-009
+dtoxe_nlvt11ll_mis    = '0+atoxe_nlvt11ll*geo_fac*sigma_mis_toxe*mismod'
+dxl_nlvt11ll_mis      = '0+axl_nlvt11ll*geo_fac*sigma_mis_xl*mismod'
+dxw_nlvt11ll_mis      = '0+axw_nlvt11ll*geo_fac*sigma_mis_xw*mismod'
+dvth0_nlvt11ll_mis    = '0+avth0_nlvt11ll*geo_fac*sigma_mis_vth0*mismod'
+du0_nlvt11ll_mis      = '0+au0_nlvt11ll*geo_fac*sigma_mis_u0*mismod'
+dvoff_nlvt11ll_mis    = '0+avoff_nlvt11ll*geo_fac*sigma_mis_voff*mismod'
******corner******
+dtoxe_nlvt11ll        = '0+dtoxe_nlvt11ll_mis'
+dxl_nlvt11ll          = '0+dxl_nlvt11ll_mis'
+dxw_nlvt11ll          = '0+dxw_nlvt11ll_mis'
+dvth_nlvt11ll         = '0+dvth0_nlvt11ll_mis'
+du0_nlvt11ll          = '0+du0_nlvt11ll_mis'
+dvoff_nlvt11ll        = '0+dvoff_nlvt11ll_mis'
+dcgdo_nlvt11ll        = '0+prelayout*6.64e-18*dcn/(w*scale_mos)'
+dcgso_nlvt11ll        = '0+prelayout*6.64e-18*dcn/(w*scale_mos)'
+dcjs_nlvt11ll          = 0
+dcjsws_nlvt11ll        = 0
+dcjswgs_nlvt11ll       = 0
+dcf_nlvt11ll           = 0
+dcgdl_nlvt11ll         = 0
+dcgsl_nlvt11ll         = 0
+dlvth0_nlvt11ll        = 0
+dwvth0_nlvt11ll        = 0
+dpvth0_nlvt11ll        = 0
+dlu0_nlvt11ll          = 0
+dpu0_nlvt11ll          = 0
+dlvsat_nlvt11ll        = 0
+dags_nlvt11ll          = 0
+dpvsat_nlvt11ll        = 0
+dlvoff_nlvt11ll        = 0
+dleta0_nlvt11ll        = 0
m1 d g s b nlvt11ll_ckt_13 w=w l=l sa=sa sb=sb sd=sd as=as ad=ad ps=ps pd=pd nrd=nrd nrs=nrs sca=sca scb=scb scc=scc nf=nf m=mr
.inc 'l0040ll_v1p4_1r_1.mdl'
.inc 'l0040ll_lpe_v1p4_1r_nlvt11ll.mdl'
.ends nlvt11ll_ckt_13

**n21**
.subckt nlvt11ll_ckt_21 d g s b w=1e-6 l=1e-6 sa='sar' sb='sbr' sd='sdr' as='asr' ad='adr' ps='psr' pd='pdr' nrd='nrdr' nrs='nrsr' sca=0 scb=0 scc=0 nf=1 mr=1 globalmod=1 mismod=1 dps=0.14u dpcs=0.04u dsts=1u lpemod=1 prelayout=0 dcn='dcnr'
.param
+dmcgr = 3.5e-8
+dmcir = 3.5e-8
+scale_mos = 0.9
+xlr = 5.8e-9
+xwr = 1.7e-8
+sar = '0.261e-6/scale_mos'
+sbr = '0.261e-6/scale_mos'
+sdr = '2*dmcgr/scale_mos'
+adr = '(nf*dmcgr+dmcir)/scale_mos*(w/nf+xwr/scale_mos)'
+asr = '(nf*dmcgr+dmcir)/scale_mos*(w/nf+xwr/scale_mos)'
+pdr = '2*(nf*dmcgr+dmcir)/scale_mos+(nf+1)*(w/nf+xwr/scale_mos)'
+psr = '2*(nf*dmcgr+dmcir)/scale_mos+(nf+1)*(w/nf+xwr/scale_mos)'
+nrdr = 'dmcgr/scale_mos/nf/(w/nf+xwr/scale_mos)'
+nrsr = 'dmcgr/scale_mos/nf/(w/nf+xwr/scale_mos)'
+dcnr = 'max(1,int(((w/nf-0.009*1e-6*2/scale_mos)-0.054*1e-6/scale_mos)/(0.126*1e-6/scale_mos)+1))'
******mismatch******
+lef = 'l*scale_mos+xlr'
+wef = 'w*scale_mos/nf+xwr'
+geo_fac = '1/sqrt(wef*lef*nf*mr)'
+atoxe_nlvt11ll = 7.22841e-038
+axl_nlvt11ll   = 7.22841e-038
+axw_nlvt11ll   = 7.22841e-038
+avth0_nlvt11ll = 2.07999e-009
+au0_nlvt11ll   = 1.12999e-012
+avoff_nlvt11ll = 2.6e-009
+dtoxe_nlvt11ll_mis    = '0+atoxe_nlvt11ll*geo_fac*sigma_mis_toxe*mismod'
+dxl_nlvt11ll_mis      = '0+axl_nlvt11ll*geo_fac*sigma_mis_xl*mismod'
+dxw_nlvt11ll_mis      = '0+axw_nlvt11ll*geo_fac*sigma_mis_xw*mismod'
+dvth0_nlvt11ll_mis    = '0+avth0_nlvt11ll*geo_fac*sigma_mis_vth0*mismod'
+du0_nlvt11ll_mis      = '0+au0_nlvt11ll*geo_fac*sigma_mis_u0*mismod'
+dvoff_nlvt11ll_mis    = '0+avoff_nlvt11ll*geo_fac*sigma_mis_voff*mismod'
******corner******
+dtoxe_nlvt11ll        = '0+dtoxe_nlvt11ll_mis'
+dxl_nlvt11ll          = '0+dxl_nlvt11ll_mis'
+dxw_nlvt11ll          = '0+dxw_nlvt11ll_mis'
+dvth_nlvt11ll         = '0+dvth0_nlvt11ll_mis'
+du0_nlvt11ll          = '0+du0_nlvt11ll_mis'
+dvoff_nlvt11ll        = '0+dvoff_nlvt11ll_mis'
+dcgdo_nlvt11ll        = '0+prelayout*6.64e-18*dcn/(w*scale_mos)'
+dcgso_nlvt11ll        = '0+prelayout*6.64e-18*dcn/(w*scale_mos)'
+dcjs_nlvt11ll          = 0
+dcjsws_nlvt11ll        = 0
+dcjswgs_nlvt11ll       = 0
+dcf_nlvt11ll           = 0
+dcgdl_nlvt11ll         = 0
+dcgsl_nlvt11ll         = 0
+dlvth0_nlvt11ll        = 0
+dwvth0_nlvt11ll        = 0
+dpvth0_nlvt11ll        = 0
+dlu0_nlvt11ll          = 0
+dpu0_nlvt11ll          = 0
+dlvsat_nlvt11ll        = 0
+dags_nlvt11ll          = 0
+dpvsat_nlvt11ll        = 0
+dlvoff_nlvt11ll        = 0
+dleta0_nlvt11ll        = 0
m1 d g s b nlvt11ll_ckt_21 w=w l=l sa=sa sb=sb sd=sd as=as ad=ad ps=ps pd=pd nrd=nrd nrs=nrs sca=sca scb=scb scc=scc nf=nf m=mr
.inc 'l0040ll_v1p4_1r_2.mdl'
.inc 'l0040ll_lpe_v1p4_1r_nlvt11ll.mdl'
.ends nlvt11ll_ckt_21

**n22**
.subckt nlvt11ll_ckt_22 d g s b w=1e-6 l=1e-6 sa='sar' sb='sbr' sd='sdr' as='asr' ad='adr' ps='psr' pd='pdr' nrd='nrdr' nrs='nrsr' sca=0 scb=0 scc=0 nf=1 mr=1 globalmod=1 mismod=1 dps=0.14u dpcs=0.04u dsts=1u lpemod=1 prelayout=0 dcn='dcnr'
.param
+dmcgr = 3.5e-8
+dmcir = 3.5e-8
+scale_mos = 0.9
+xlr = 5.8e-9
+xwr = 1.7e-8
+sar = '0.261e-6/scale_mos'
+sbr = '0.261e-6/scale_mos'
+sdr = '2*dmcgr/scale_mos'
+adr = '(nf*dmcgr+dmcir)/scale_mos*(w/nf+xwr/scale_mos)'
+asr = '(nf*dmcgr+dmcir)/scale_mos*(w/nf+xwr/scale_mos)'
+pdr = '2*(nf*dmcgr+dmcir)/scale_mos+(nf+1)*(w/nf+xwr/scale_mos)'
+psr = '2*(nf*dmcgr+dmcir)/scale_mos+(nf+1)*(w/nf+xwr/scale_mos)'
+nrdr = 'dmcgr/scale_mos/nf/(w/nf+xwr/scale_mos)'
+nrsr = 'dmcgr/scale_mos/nf/(w/nf+xwr/scale_mos)'
+dcnr = 'max(1,int(((w/nf-0.009*1e-6*2/scale_mos)-0.054*1e-6/scale_mos)/(0.126*1e-6/scale_mos)+1))'
******mismatch******
+lef = 'l*scale_mos+xlr'
+wef = 'w*scale_mos/nf+xwr'
+geo_fac = '1/sqrt(wef*lef*nf*mr)'
+atoxe_nlvt11ll = 7.22841e-038
+axl_nlvt11ll   = 7.22841e-038
+axw_nlvt11ll   = 7.22841e-038
+avth0_nlvt11ll = 2.07999e-009
+au0_nlvt11ll   = 1.12999e-012
+avoff_nlvt11ll = 2.6e-009
+dtoxe_nlvt11ll_mis    = '0+atoxe_nlvt11ll*geo_fac*sigma_mis_toxe*mismod'
+dxl_nlvt11ll_mis      = '0+axl_nlvt11ll*geo_fac*sigma_mis_xl*mismod'
+dxw_nlvt11ll_mis      = '0+axw_nlvt11ll*geo_fac*sigma_mis_xw*mismod'
+dvth0_nlvt11ll_mis    = '0+avth0_nlvt11ll*geo_fac*sigma_mis_vth0*mismod'
+du0_nlvt11ll_mis      = '0+au0_nlvt11ll*geo_fac*sigma_mis_u0*mismod'
+dvoff_nlvt11ll_mis    = '0+avoff_nlvt11ll*geo_fac*sigma_mis_voff*mismod'
******corner******
+dtoxe_nlvt11ll        = '0+dtoxe_nlvt11ll_mis'
+dxl_nlvt11ll          = '0+dxl_nlvt11ll_mis'
+dxw_nlvt11ll          = '0+dxw_nlvt11ll_mis'
+dvth_nlvt11ll         = '0+dvth0_nlvt11ll_mis'
+du0_nlvt11ll          = '0+du0_nlvt11ll_mis'
+dvoff_nlvt11ll        = '0+dvoff_nlvt11ll_mis'
+dcgdo_nlvt11ll        = '0+prelayout*6.64e-18*dcn/(w*scale_mos)'
+dcgso_nlvt11ll        = '0+prelayout*6.64e-18*dcn/(w*scale_mos)'
+dcjs_nlvt11ll          = 0
+dcjsws_nlvt11ll        = 0
+dcjswgs_nlvt11ll       = 0
+dcf_nlvt11ll           = 0
+dcgdl_nlvt11ll         = 0
+dcgsl_nlvt11ll         = 0
+dlvth0_nlvt11ll        = 0
+dwvth0_nlvt11ll        = 0
+dpvth0_nlvt11ll        = 0
+dlu0_nlvt11ll          = 0
+dpu0_nlvt11ll          = 0
+dlvsat_nlvt11ll        = 0
+dags_nlvt11ll          = 0
+dpvsat_nlvt11ll        = 0
+dlvoff_nlvt11ll        = 0
+dleta0_nlvt11ll        = 0
m1 d g s b nlvt11ll_ckt_22 w=w l=l sa=sa sb=sb sd=sd as=as ad=ad ps=ps pd=pd nrd=nrd nrs=nrs sca=sca scb=scb scc=scc nf=nf m=mr
.inc 'l0040ll_v1p4_1r_2.mdl'
.inc 'l0040ll_lpe_v1p4_1r_nlvt11ll.mdl'
.ends nlvt11ll_ckt_22

**n23**
.subckt nlvt11ll_ckt_23 d g s b w=1e-6 l=1e-6 sa='sar' sb='sbr' sd='sdr' as='asr' ad='adr' ps='psr' pd='pdr' nrd='nrdr' nrs='nrsr' sca=0 scb=0 scc=0 nf=1 mr=1 globalmod=1 mismod=1 dps=0.14u dpcs=0.04u dsts=1u lpemod=1 prelayout=0 dcn='dcnr'
.param
+dmcgr = 3.5e-8
+dmcir = 3.5e-8
+scale_mos = 0.9
+xlr = 5.8e-9
+xwr = 1.7e-8
+sar = '0.261e-6/scale_mos'
+sbr = '0.261e-6/scale_mos'
+sdr = '2*dmcgr/scale_mos'
+adr = '(nf*dmcgr+dmcir)/scale_mos*(w/nf+xwr/scale_mos)'
+asr = '(nf*dmcgr+dmcir)/scale_mos*(w/nf+xwr/scale_mos)'
+pdr = '2*(nf*dmcgr+dmcir)/scale_mos+(nf+1)*(w/nf+xwr/scale_mos)'
+psr = '2*(nf*dmcgr+dmcir)/scale_mos+(nf+1)*(w/nf+xwr/scale_mos)'
+nrdr = 'dmcgr/scale_mos/nf/(w/nf+xwr/scale_mos)'
+nrsr = 'dmcgr/scale_mos/nf/(w/nf+xwr/scale_mos)'
+dcnr = 'max(1,int(((w/nf-0.009*1e-6*2/scale_mos)-0.054*1e-6/scale_mos)/(0.126*1e-6/scale_mos)+1))'
******mismatch******
+lef = 'l*scale_mos+xlr'
+wef = 'w*scale_mos/nf+xwr'
+geo_fac = '1/sqrt(wef*lef*nf*mr)'
+atoxe_nlvt11ll = 7.22841e-038
+axl_nlvt11ll   = 7.22841e-038
+axw_nlvt11ll   = 7.22841e-038
+avth0_nlvt11ll = 2.07999e-009
+au0_nlvt11ll   = 1.12999e-012
+avoff_nlvt11ll = 2.6e-009
+dtoxe_nlvt11ll_mis    = '0+atoxe_nlvt11ll*geo_fac*sigma_mis_toxe*mismod'
+dxl_nlvt11ll_mis      = '0+axl_nlvt11ll*geo_fac*sigma_mis_xl*mismod'
+dxw_nlvt11ll_mis      = '0+axw_nlvt11ll*geo_fac*sigma_mis_xw*mismod'
+dvth0_nlvt11ll_mis    = '0+avth0_nlvt11ll*geo_fac*sigma_mis_vth0*mismod'
+du0_nlvt11ll_mis      = '0+au0_nlvt11ll*geo_fac*sigma_mis_u0*mismod'
+dvoff_nlvt11ll_mis    = '0+avoff_nlvt11ll*geo_fac*sigma_mis_voff*mismod'
******corner******
+dtoxe_nlvt11ll        = '0+dtoxe_nlvt11ll_mis'
+dxl_nlvt11ll          = '0+dxl_nlvt11ll_mis'
+dxw_nlvt11ll          = '0+dxw_nlvt11ll_mis'
+dvth_nlvt11ll         = '0+dvth0_nlvt11ll_mis'
+du0_nlvt11ll          = '0+du0_nlvt11ll_mis'
+dvoff_nlvt11ll        = '0+dvoff_nlvt11ll_mis'
+dcgdo_nlvt11ll        = '0+prelayout*6.64e-18*dcn/(w*scale_mos)'
+dcgso_nlvt11ll        = '0+prelayout*6.64e-18*dcn/(w*scale_mos)'
+dcjs_nlvt11ll          = 0
+dcjsws_nlvt11ll        = 0
+dcjswgs_nlvt11ll       = 0
+dcf_nlvt11ll           = 0
+dcgdl_nlvt11ll         = 0
+dcgsl_nlvt11ll         = 0
+dlvth0_nlvt11ll        = 0
+dwvth0_nlvt11ll        = 0
+dpvth0_nlvt11ll        = 0
+dlu0_nlvt11ll          = 0
+dpu0_nlvt11ll          = 0
+dlvsat_nlvt11ll        = 0
+dags_nlvt11ll          = 0
+dpvsat_nlvt11ll        = 0
+dlvoff_nlvt11ll        = 0
+dleta0_nlvt11ll        = 0
m1 d g s b nlvt11ll_ckt_23 w=w l=l sa=sa sb=sb sd=sd as=as ad=ad ps=ps pd=pd nrd=nrd nrs=nrs sca=sca scb=scb scc=scc nf=nf m=mr
.inc 'l0040ll_v1p4_1r_2.mdl'
.inc 'l0040ll_lpe_v1p4_1r_nlvt11ll.mdl'
.ends nlvt11ll_ckt_23

**n31**
.subckt nlvt11ll_ckt_31 d g s b w=1e-6 l=1e-6 sa='sar' sb='sbr' sd='sdr' as='asr' ad='adr' ps='psr' pd='pdr' nrd='nrdr' nrs='nrsr' sca=0 scb=0 scc=0 nf=1 mr=1 globalmod=1 mismod=1 dps=0.14u dpcs=0.04u dsts=1u lpemod=1 prelayout=0 dcn='dcnr'
.param
+dmcgr = 3.5e-8
+dmcir = 3.5e-8
+scale_mos = 0.9
+xlr = 5.8e-9
+xwr = 1.7e-8
+sar = '0.261e-6/scale_mos'
+sbr = '0.261e-6/scale_mos'
+sdr = '2*dmcgr/scale_mos'
+adr = '(nf*dmcgr+dmcir)/scale_mos*(w/nf+xwr/scale_mos)'
+asr = '(nf*dmcgr+dmcir)/scale_mos*(w/nf+xwr/scale_mos)'
+pdr = '2*(nf*dmcgr+dmcir)/scale_mos+(nf+1)*(w/nf+xwr/scale_mos)'
+psr = '2*(nf*dmcgr+dmcir)/scale_mos+(nf+1)*(w/nf+xwr/scale_mos)'
+nrdr = 'dmcgr/scale_mos/nf/(w/nf+xwr/scale_mos)'
+nrsr = 'dmcgr/scale_mos/nf/(w/nf+xwr/scale_mos)'
+dcnr = 'max(1,int(((w/nf-0.009*1e-6*2/scale_mos)-0.054*1e-6/scale_mos)/(0.126*1e-6/scale_mos)+1))'
******mismatch******
+lef = 'l*scale_mos+xlr'
+wef = 'w*scale_mos/nf+xwr'
+geo_fac = '1/sqrt(wef*lef*nf*mr)'
+atoxe_nlvt11ll = 7.22841e-038
+axl_nlvt11ll   = 7.22841e-038
+axw_nlvt11ll   = 7.22841e-038
+avth0_nlvt11ll = 2.07999e-009
+au0_nlvt11ll   = 1.12999e-012
+avoff_nlvt11ll = 2.6e-009
+dtoxe_nlvt11ll_mis    = '0+atoxe_nlvt11ll*geo_fac*sigma_mis_toxe*mismod'
+dxl_nlvt11ll_mis      = '0+axl_nlvt11ll*geo_fac*sigma_mis_xl*mismod'
+dxw_nlvt11ll_mis      = '0+axw_nlvt11ll*geo_fac*sigma_mis_xw*mismod'
+dvth0_nlvt11ll_mis    = '0+avth0_nlvt11ll*geo_fac*sigma_mis_vth0*mismod'
+du0_nlvt11ll_mis      = '0+au0_nlvt11ll*geo_fac*sigma_mis_u0*mismod'
+dvoff_nlvt11ll_mis    = '0+avoff_nlvt11ll*geo_fac*sigma_mis_voff*mismod'
******corner******
+dtoxe_nlvt11ll        = '0+dtoxe_nlvt11ll_mis'
+dxl_nlvt11ll          = '0+dxl_nlvt11ll_mis'
+dxw_nlvt11ll          = '0+dxw_nlvt11ll_mis'
+dvth_nlvt11ll         = '0+dvth0_nlvt11ll_mis'
+du0_nlvt11ll          = '0+du0_nlvt11ll_mis'
+dvoff_nlvt11ll        = '0+dvoff_nlvt11ll_mis'
+dcgdo_nlvt11ll        = '0+prelayout*6.64e-18*dcn/(w*scale_mos)'
+dcgso_nlvt11ll        = '0+prelayout*6.64e-18*dcn/(w*scale_mos)'
+dcjs_nlvt11ll          = 0
+dcjsws_nlvt11ll        = 0
+dcjswgs_nlvt11ll       = 0
+dcf_nlvt11ll           = 0
+dcgdl_nlvt11ll         = 0
+dcgsl_nlvt11ll         = 0
+dlvth0_nlvt11ll        = 0
+dwvth0_nlvt11ll        = 0
+dpvth0_nlvt11ll        = 0
+dlu0_nlvt11ll          = 0
+dpu0_nlvt11ll          = 0
+dlvsat_nlvt11ll        = 0
+dags_nlvt11ll          = 0
+dpvsat_nlvt11ll        = 0
+dlvoff_nlvt11ll        = 0
+dleta0_nlvt11ll        = 0
m1 d g s b nlvt11ll_ckt_31 w=w l=l sa=sa sb=sb sd=sd as=as ad=ad ps=ps pd=pd nrd=nrd nrs=nrs sca=sca scb=scb scc=scc nf=nf m=mr
.inc 'l0040ll_v1p4_1r_3.mdl'
.inc 'l0040ll_lpe_v1p4_1r_nlvt11ll.mdl'
.ends nlvt11ll_ckt_31

**n32**
.subckt nlvt11ll_ckt_32 d g s b w=1e-6 l=1e-6 sa='sar' sb='sbr' sd='sdr' as='asr' ad='adr' ps='psr' pd='pdr' nrd='nrdr' nrs='nrsr' sca=0 scb=0 scc=0 nf=1 mr=1 globalmod=1 mismod=1 dps=0.14u dpcs=0.04u dsts=1u lpemod=1 prelayout=0 dcn='dcnr'
.param
+dmcgr = 3.5e-8
+dmcir = 3.5e-8
+scale_mos = 0.9
+xlr = 5.8e-9
+xwr = 1.7e-8
+sar = '0.261e-6/scale_mos'
+sbr = '0.261e-6/scale_mos'
+sdr = '2*dmcgr/scale_mos'
+adr = '(nf*dmcgr+dmcir)/scale_mos*(w/nf+xwr/scale_mos)'
+asr = '(nf*dmcgr+dmcir)/scale_mos*(w/nf+xwr/scale_mos)'
+pdr = '2*(nf*dmcgr+dmcir)/scale_mos+(nf+1)*(w/nf+xwr/scale_mos)'
+psr = '2*(nf*dmcgr+dmcir)/scale_mos+(nf+1)*(w/nf+xwr/scale_mos)'
+nrdr = 'dmcgr/scale_mos/nf/(w/nf+xwr/scale_mos)'
+nrsr = 'dmcgr/scale_mos/nf/(w/nf+xwr/scale_mos)'
+dcnr = 'max(1,int(((w/nf-0.009*1e-6*2/scale_mos)-0.054*1e-6/scale_mos)/(0.126*1e-6/scale_mos)+1))'
******mismatch******
+lef = 'l*scale_mos+xlr'
+wef = 'w*scale_mos/nf+xwr'
+geo_fac = '1/sqrt(wef*lef*nf*mr)'
+atoxe_nlvt11ll = 7.22841e-038
+axl_nlvt11ll   = 7.22841e-038
+axw_nlvt11ll   = 7.22841e-038
+avth0_nlvt11ll = 2.07999e-009
+au0_nlvt11ll   = 1.12999e-012
+avoff_nlvt11ll = 2.6e-009
+dtoxe_nlvt11ll_mis    = '0+atoxe_nlvt11ll*geo_fac*sigma_mis_toxe*mismod'
+dxl_nlvt11ll_mis      = '0+axl_nlvt11ll*geo_fac*sigma_mis_xl*mismod'
+dxw_nlvt11ll_mis      = '0+axw_nlvt11ll*geo_fac*sigma_mis_xw*mismod'
+dvth0_nlvt11ll_mis    = '0+avth0_nlvt11ll*geo_fac*sigma_mis_vth0*mismod'
+du0_nlvt11ll_mis      = '0+au0_nlvt11ll*geo_fac*sigma_mis_u0*mismod'
+dvoff_nlvt11ll_mis    = '0+avoff_nlvt11ll*geo_fac*sigma_mis_voff*mismod'
******corner******
+dtoxe_nlvt11ll        = '0+dtoxe_nlvt11ll_mis'
+dxl_nlvt11ll          = '0+dxl_nlvt11ll_mis'
+dxw_nlvt11ll          = '0+dxw_nlvt11ll_mis'
+dvth_nlvt11ll         = '0+dvth0_nlvt11ll_mis'
+du0_nlvt11ll          = '0+du0_nlvt11ll_mis'
+dvoff_nlvt11ll        = '0+dvoff_nlvt11ll_mis'
+dcgdo_nlvt11ll        = '0+prelayout*6.64e-18*dcn/(w*scale_mos)'
+dcgso_nlvt11ll        = '0+prelayout*6.64e-18*dcn/(w*scale_mos)'
+dcjs_nlvt11ll          = 0
+dcjsws_nlvt11ll        = 0
+dcjswgs_nlvt11ll       = 0
+dcf_nlvt11ll           = 0
+dcgdl_nlvt11ll         = 0
+dcgsl_nlvt11ll         = 0
+dlvth0_nlvt11ll        = 0
+dwvth0_nlvt11ll        = 0
+dpvth0_nlvt11ll        = 0
+dlu0_nlvt11ll          = 0
+dpu0_nlvt11ll          = 0
+dlvsat_nlvt11ll        = 0
+dags_nlvt11ll          = 0
+dpvsat_nlvt11ll        = 0
+dlvoff_nlvt11ll        = 0
+dleta0_nlvt11ll        = 0
m1 d g s b nlvt11ll_ckt_32 w=w l=l sa=sa sb=sb sd=sd as=as ad=ad ps=ps pd=pd nrd=nrd nrs=nrs sca=sca scb=scb scc=scc nf=nf m=mr
.inc 'l0040ll_v1p4_1r_3.mdl'
.inc 'l0040ll_lpe_v1p4_1r_nlvt11ll.mdl'
.ends nlvt11ll_ckt_32

**n33**
.subckt nlvt11ll_ckt_33 d g s b w=1e-6 l=1e-6 sa='sar' sb='sbr' sd='sdr' as='asr' ad='adr' ps='psr' pd='pdr' nrd='nrdr' nrs='nrsr' sca=0 scb=0 scc=0 nf=1 mr=1 globalmod=1 mismod=1 dps=0.14u dpcs=0.04u dsts=1u lpemod=1 prelayout=0 dcn='dcnr'
.param
+dmcgr = 3.5e-8
+dmcir = 3.5e-8
+scale_mos = 0.9
+xlr = 5.8e-9
+xwr = 1.7e-8
+sar = '0.261e-6/scale_mos'
+sbr = '0.261e-6/scale_mos'
+sdr = '2*dmcgr/scale_mos'
+adr = '(nf*dmcgr+dmcir)/scale_mos*(w/nf+xwr/scale_mos)'
+asr = '(nf*dmcgr+dmcir)/scale_mos*(w/nf+xwr/scale_mos)'
+pdr = '2*(nf*dmcgr+dmcir)/scale_mos+(nf+1)*(w/nf+xwr/scale_mos)'
+psr = '2*(nf*dmcgr+dmcir)/scale_mos+(nf+1)*(w/nf+xwr/scale_mos)'
+nrdr = 'dmcgr/scale_mos/nf/(w/nf+xwr/scale_mos)'
+nrsr = 'dmcgr/scale_mos/nf/(w/nf+xwr/scale_mos)'
+dcnr = 'max(1,int(((w/nf-0.009*1e-6*2/scale_mos)-0.054*1e-6/scale_mos)/(0.126*1e-6/scale_mos)+1))'
******mismatch******
+lef = 'l*scale_mos+xlr'
+wef = 'w*scale_mos/nf+xwr'
+geo_fac = '1/sqrt(wef*lef*nf*mr)'
+atoxe_nlvt11ll = 7.22841e-038
+axl_nlvt11ll   = 7.22841e-038
+axw_nlvt11ll   = 7.22841e-038
+avth0_nlvt11ll = 2.07999e-009
+au0_nlvt11ll   = 1.12999e-012
+avoff_nlvt11ll = 2.6e-009
+dtoxe_nlvt11ll_mis    = '0+atoxe_nlvt11ll*geo_fac*sigma_mis_toxe*mismod'
+dxl_nlvt11ll_mis      = '0+axl_nlvt11ll*geo_fac*sigma_mis_xl*mismod'
+dxw_nlvt11ll_mis      = '0+axw_nlvt11ll*geo_fac*sigma_mis_xw*mismod'
+dvth0_nlvt11ll_mis    = '0+avth0_nlvt11ll*geo_fac*sigma_mis_vth0*mismod'
+du0_nlvt11ll_mis      = '0+au0_nlvt11ll*geo_fac*sigma_mis_u0*mismod'
+dvoff_nlvt11ll_mis    = '0+avoff_nlvt11ll*geo_fac*sigma_mis_voff*mismod'
******corner******
+dtoxe_nlvt11ll        = '0+dtoxe_nlvt11ll_mis'
+dxl_nlvt11ll          = '0+dxl_nlvt11ll_mis'
+dxw_nlvt11ll          = '0+dxw_nlvt11ll_mis'
+dvth_nlvt11ll         = '0+dvth0_nlvt11ll_mis'
+du0_nlvt11ll          = '0+du0_nlvt11ll_mis'
+dvoff_nlvt11ll        = '0+dvoff_nlvt11ll_mis'
+dcgdo_nlvt11ll        = '0+prelayout*6.64e-18*dcn/(w*scale_mos)'
+dcgso_nlvt11ll        = '0+prelayout*6.64e-18*dcn/(w*scale_mos)'
+dcjs_nlvt11ll          = 0
+dcjsws_nlvt11ll        = 0
+dcjswgs_nlvt11ll       = 0
+dcf_nlvt11ll           = 0
+dcgdl_nlvt11ll         = 0
+dcgsl_nlvt11ll         = 0
+dlvth0_nlvt11ll        = 0
+dwvth0_nlvt11ll        = 0
+dpvth0_nlvt11ll        = 0
+dlu0_nlvt11ll          = 0
+dpu0_nlvt11ll          = 0
+dlvsat_nlvt11ll        = 0
+dags_nlvt11ll          = 0
+dpvsat_nlvt11ll        = 0
+dlvoff_nlvt11ll        = 0
+dleta0_nlvt11ll        = 0
m1 d g s b nlvt11ll_ckt_33 w=w l=l sa=sa sb=sb sd=sd as=as ad=ad ps=ps pd=pd nrd=nrd nrs=nrs sca=sca scb=scb scc=scc nf=nf m=mr
.inc 'l0040ll_v1p4_1r_3.mdl'
.inc 'l0040ll_lpe_v1p4_1r_nlvt11ll.mdl'
.ends nlvt11ll_ckt_33

**n41**
.subckt nlvt11ll_ckt_41 d g s b w=1e-6 l=1e-6 sa='sar' sb='sbr' sd='sdr' as='asr' ad='adr' ps='psr' pd='pdr' nrd='nrdr' nrs='nrsr' sca=0 scb=0 scc=0 nf=1 mr=1 globalmod=1 mismod=1 dps=0.14u dpcs=0.04u dsts=1u lpemod=1 prelayout=0 dcn='dcnr'
.param
+dmcgr = 3.5e-8
+dmcir = 3.5e-8
+scale_mos = 0.9
+xlr = 5.8e-9
+xwr = 1.7e-8
+sar = '0.261e-6/scale_mos'
+sbr = '0.261e-6/scale_mos'
+sdr = '2*dmcgr/scale_mos'
+adr = '(nf*dmcgr+dmcir)/scale_mos*(w/nf+xwr/scale_mos)'
+asr = '(nf*dmcgr+dmcir)/scale_mos*(w/nf+xwr/scale_mos)'
+pdr = '2*(nf*dmcgr+dmcir)/scale_mos+(nf+1)*(w/nf+xwr/scale_mos)'
+psr = '2*(nf*dmcgr+dmcir)/scale_mos+(nf+1)*(w/nf+xwr/scale_mos)'
+nrdr = 'dmcgr/scale_mos/nf/(w/nf+xwr/scale_mos)'
+nrsr = 'dmcgr/scale_mos/nf/(w/nf+xwr/scale_mos)'
+dcnr = 'max(1,int(((w/nf-0.009*1e-6*2/scale_mos)-0.054*1e-6/scale_mos)/(0.126*1e-6/scale_mos)+1))'
******mismatch******
+lef = 'l*scale_mos+xlr'
+wef = 'w*scale_mos/nf+xwr'
+geo_fac = '1/sqrt(wef*lef*nf*mr)'
+atoxe_nlvt11ll = 7.22841e-038
+axl_nlvt11ll   = 7.22841e-038
+axw_nlvt11ll   = 7.22841e-038
+avth0_nlvt11ll = 2.07999e-009
+au0_nlvt11ll   = 1.12999e-012
+avoff_nlvt11ll = 2.6e-009
+dtoxe_nlvt11ll_mis    = '0+atoxe_nlvt11ll*geo_fac*sigma_mis_toxe*mismod'
+dxl_nlvt11ll_mis      = '0+axl_nlvt11ll*geo_fac*sigma_mis_xl*mismod'
+dxw_nlvt11ll_mis      = '0+axw_nlvt11ll*geo_fac*sigma_mis_xw*mismod'
+dvth0_nlvt11ll_mis    = '0+avth0_nlvt11ll*geo_fac*sigma_mis_vth0*mismod'
+du0_nlvt11ll_mis      = '0+au0_nlvt11ll*geo_fac*sigma_mis_u0*mismod'
+dvoff_nlvt11ll_mis    = '0+avoff_nlvt11ll*geo_fac*sigma_mis_voff*mismod'
******corner******
+dtoxe_nlvt11ll        = '0+dtoxe_nlvt11ll_mis'
+dxl_nlvt11ll          = '0+dxl_nlvt11ll_mis'
+dxw_nlvt11ll          = '0+dxw_nlvt11ll_mis'
+dvth_nlvt11ll         = '0+dvth0_nlvt11ll_mis'
+du0_nlvt11ll          = '0+du0_nlvt11ll_mis'
+dvoff_nlvt11ll        = '0+dvoff_nlvt11ll_mis'
+dcgdo_nlvt11ll        = '0+prelayout*6.64e-18*dcn/(w*scale_mos)'
+dcgso_nlvt11ll        = '0+prelayout*6.64e-18*dcn/(w*scale_mos)'
+dcjs_nlvt11ll          = 0
+dcjsws_nlvt11ll        = 0
+dcjswgs_nlvt11ll       = 0
+dcf_nlvt11ll           = 0
+dcgdl_nlvt11ll         = 0
+dcgsl_nlvt11ll         = 0
+dlvth0_nlvt11ll        = 0
+dwvth0_nlvt11ll        = 0
+dpvth0_nlvt11ll        = 0
+dlu0_nlvt11ll          = 0
+dpu0_nlvt11ll          = 0
+dlvsat_nlvt11ll        = 0
+dags_nlvt11ll          = 0
+dpvsat_nlvt11ll        = 0
+dlvoff_nlvt11ll        = 0
+dleta0_nlvt11ll        = 0
m1 d g s b nlvt11ll_ckt_41 w=w l=l sa=sa sb=sb sd=sd as=as ad=ad ps=ps pd=pd nrd=nrd nrs=nrs sca=sca scb=scb scc=scc nf=nf m=mr
.inc 'l0040ll_v1p4_1r_4.mdl'
.inc 'l0040ll_lpe_v1p4_1r_nlvt11ll.mdl'
.ends nlvt11ll_ckt_41

**n42**
.subckt nlvt11ll_ckt_42 d g s b w=1e-6 l=1e-6 sa='sar' sb='sbr' sd='sdr' as='asr' ad='adr' ps='psr' pd='pdr' nrd='nrdr' nrs='nrsr' sca=0 scb=0 scc=0 nf=1 mr=1 globalmod=1 mismod=1 dps=0.14u dpcs=0.04u dsts=1u lpemod=1 prelayout=0 dcn='dcnr'
.param
+dmcgr = 3.5e-8
+dmcir = 3.5e-8
+scale_mos = 0.9
+xlr = 5.8e-9
+xwr = 1.7e-8
+sar = '0.261e-6/scale_mos'
+sbr = '0.261e-6/scale_mos'
+sdr = '2*dmcgr/scale_mos'
+adr = '(nf*dmcgr+dmcir)/scale_mos*(w/nf+xwr/scale_mos)'
+asr = '(nf*dmcgr+dmcir)/scale_mos*(w/nf+xwr/scale_mos)'
+pdr = '2*(nf*dmcgr+dmcir)/scale_mos+(nf+1)*(w/nf+xwr/scale_mos)'
+psr = '2*(nf*dmcgr+dmcir)/scale_mos+(nf+1)*(w/nf+xwr/scale_mos)'
+nrdr = 'dmcgr/scale_mos/nf/(w/nf+xwr/scale_mos)'
+nrsr = 'dmcgr/scale_mos/nf/(w/nf+xwr/scale_mos)'
+dcnr = 'max(1,int(((w/nf-0.009*1e-6*2/scale_mos)-0.054*1e-6/scale_mos)/(0.126*1e-6/scale_mos)+1))'
******mismatch******
+lef = 'l*scale_mos+xlr'
+wef = 'w*scale_mos/nf+xwr'
+geo_fac = '1/sqrt(wef*lef*nf*mr)'
+atoxe_nlvt11ll = 7.22841e-038
+axl_nlvt11ll   = 7.22841e-038
+axw_nlvt11ll   = 7.22841e-038
+avth0_nlvt11ll = 2.07999e-009
+au0_nlvt11ll   = 1.12999e-012
+avoff_nlvt11ll = 2.6e-009
+dtoxe_nlvt11ll_mis    = '0+atoxe_nlvt11ll*geo_fac*sigma_mis_toxe*mismod'
+dxl_nlvt11ll_mis      = '0+axl_nlvt11ll*geo_fac*sigma_mis_xl*mismod'
+dxw_nlvt11ll_mis      = '0+axw_nlvt11ll*geo_fac*sigma_mis_xw*mismod'
+dvth0_nlvt11ll_mis    = '0+avth0_nlvt11ll*geo_fac*sigma_mis_vth0*mismod'
+du0_nlvt11ll_mis      = '0+au0_nlvt11ll*geo_fac*sigma_mis_u0*mismod'
+dvoff_nlvt11ll_mis    = '0+avoff_nlvt11ll*geo_fac*sigma_mis_voff*mismod'
******corner******
+dtoxe_nlvt11ll        = '0+dtoxe_nlvt11ll_mis'
+dxl_nlvt11ll          = '0+dxl_nlvt11ll_mis'
+dxw_nlvt11ll          = '0+dxw_nlvt11ll_mis'
+dvth_nlvt11ll         = '0+dvth0_nlvt11ll_mis'
+du0_nlvt11ll          = '0+du0_nlvt11ll_mis'
+dvoff_nlvt11ll        = '0+dvoff_nlvt11ll_mis'
+dcgdo_nlvt11ll        = '0+prelayout*6.64e-18*dcn/(w*scale_mos)'